   28
 
    C     -3.39149052     -5.80869353      0.00000000      3.99999629
    C     -3.39590466     -1.93868352      0.00000000      4.00000065
    C     -2.89650941     -3.32306727      0.00000000      4.00002777
    C     -1.41581504     -3.59589577      0.00000000      3.99998663
    C     -0.91650370     -4.98020625      0.00000000      3.99999398
    C      0.56414400     -5.25292884      0.00000000      3.99999592
    C     -2.90075836      0.54703541      0.00000000      4.00000369
    C     -2.40156023     -0.83733912      0.00000000      3.99999296
    C     -0.92087877     -1.11013295      0.00000000      3.99999223
    C     -0.42154594     -2.49446866      0.00000000      4.00001020
    C      1.05922579     -2.76719323      0.00000000      4.00002111
    C      1.55853089     -4.15158880      0.00000000      3.99999490
    C      3.03909578     -4.42442118      0.00000000      3.99997873
    C     -2.40597557      3.03269545      0.00000000      4.00001133
    C     -1.90649926      1.64843701      0.00000000      3.99999700
    C     -0.42576426      1.37571377      0.00000000      4.00001522
    C      0.07346490     -0.00874894      0.00000000      4.00001073
    C      1.55414177     -0.28144697      0.00000000      4.00000150
    C      2.05346973     -1.66579841      0.00000000      3.99998484
    C     -1.91086619      5.51843009      0.00000000      3.99999755
    C     -1.41157186      4.13410602      0.00000000      3.99999723
    C      0.06910625      3.86145557      0.00000000      4.00000793
    C      0.56847484      2.47707123      0.00000000      3.99998290
    C      2.04905952      2.20417101      0.00000000      3.99997285
    C      2.54850465      0.81990381      0.00000000      4.00001406
    C      1.06350081      4.96278418      0.00000000      3.99999991
    C      2.54417514      4.68992212      0.00000000      4.00001461
    C      3.04334569      3.30550476      0.00000000      3.99999728
